6

H   3.770388377	    2.188781198     14.11129358
N   3.770378338	    2.190240225     13.06287126
B   3.770383558	    3.641753044     12.54128656
C   3.770389890     3.643311728     10.93456357
C   3.770390252	    5.094680817     10.46505951
H   3.770392067	    5.095828627     9.341747648

