6
    Avogadro -30 degrees coordinates rotation (Angstroms)
H         -0.06503        0.24430        3.66218
N         -0.06484        0.24397        2.61677
B          1.38641        0.24394        2.09074
C          1.38649        0.24378        0.46482
C         -0.06473        0.24377       -0.00797
H         -0.06471        0.24374       -1.12924
################################################################################
6
    Avogadro -30 degrees coordinates rotation (Angstroms --> Bohrs)
H   -0.12289    0.46166      6.92052
N   -0.12253    0.46104      4.94498
B    2.61994    0.46098      3.95093
C    2.62009    0.46068      0.87838
C   -0.12232    0.46066     -0.01506
H   -0.12228    0.46060     -2.13395
################################################################################
6  
    Original coordinates (Angstroms):
H    4.41638E-06    0.001600301  -1.096415014
N    2.74233E-06    0.001977289  -0.051011515
B    1.256797998    0.727633473   0.475023269
C    1.256794011    0.727812924   2.100946187
C   -2.11644E-06    0.002213399   2.573738293
H   -5.30619E-06    0.002243549   3.695010239
